<?xml version="1.0" encoding="UTF-8"?>

<!-- generated on 2025-11-04 16:42:53 by Eclipse SUMO netedit Version 1.21.0
<neteditConfiguration xmlns:xsi="http://www.w3.org/2001/XMLSchema-instance" xsi:noNamespaceSchemaLocation="http://sumo.dlr.de/xsd/neteditConfiguration.xsd">

    <input>
        <sumo-net-file value="C:\Users\X1\Documents\SUMO\12th Oct 2025\LinkedIn Project\re-work in its entirety\roundabout1.net.xml"/>
    </input>

    <output>
        <output-file value="C:\Users\X1\Documents\SUMO\12th Oct 2025\LinkedIn Project\re-work in its entirety\roundabout1.net.xml"/>
    </output>

    <processing>
        <geometry.min-radius.fix.railways value="false"/>
        <geometry.max-grade.fix value="false"/>
        <offset.disable-normalization value="true"/>
        <lefthand value="0"/>
    </processing>

    <junctions>
        <no-turnarounds value="true"/>
        <junctions.corner-detail value="5"/>
        <junctions.limit-turn-speed value="5.50"/>
        <rectangular-lane-cut value="0"/>
    </junctions>

    <pedestrian>
        <walkingareas value="0"/>
    </pedestrian>

</neteditConfiguration>
-->

<net version="1.20" junctionCornerDetail="5" limitTurnSpeed="5.50" xmlns:xsi="http://www.w3.org/2001/XMLSchema-instance" xsi:noNamespaceSchemaLocation="http://sumo.dlr.de/xsd/net_file.xsd">

    <location netOffset="-590190.12,-2616767.42" convBoundary="0.00,0.00,26617.58,5821.65" origBoundary="57.884444,23.658871,58.145488,23.710287" projParameter="+proj=utm +zone=40 +ellps=WGS84 +datum=WGS84 +units=m +no_defs"/>

    <type id="highway.primary" priority="12" numLanes="2" speed="27.78" disallow="tram rail_urban rail rail_electric rail_fast ship container cable_car subway aircraft wheelchair scooter drone" oneway="0"/>
    <type id="highway.service" priority="1" numLanes="1" speed="5.56" allow="pedestrian delivery bicycle" oneway="0"/>
    <type id="highway.trunk" priority="13" numLanes="2" speed="27.78" disallow="pedestrian bicycle tram rail_urban rail rail_electric rail_fast ship container cable_car subway aircraft wheelchair scooter drone" oneway="0"/>

    <edge id=":11868229259_0" function="internal">
        <lane id=":11868229259_0_0" index="0" allow="pedestrian delivery bicycle" speed="3.65" length="4.67" shape="21030.49,3519.47 21031.90,3519.74 21032.58,3520.32 21032.53,3521.21 21031.73,3522.41"/>
    </edge>
    <edge id=":13164595358_0" function="internal">
        <lane id=":13164595358_0_0" index="0" allow="pedestrian delivery bicycle" speed="5.56" length="0.10" shape="20115.93,3765.71 20115.93,3765.71"/>
    </edge>
    <edge id=":13164595359_0" function="internal">
        <lane id=":13164595359_0_0" index="0" allow="pedestrian delivery bicycle" speed="5.56" length="0.10" shape="20123.85,3762.87 20123.85,3762.87"/>
    </edge>
    <edge id=":13164595370_0" function="internal">
        <lane id=":13164595370_0_0" index="0" disallow="pedestrian bicycle tram rail_urban rail rail_electric rail_fast ship container cable_car subway aircraft wheelchair scooter drone" speed="33.33" length="0.10" shape="20397.41,3477.67 20397.41,3477.67"/>
        <lane id=":13164595370_0_1" index="1" disallow="pedestrian bicycle tram rail_urban rail rail_electric rail_fast ship container cable_car subway aircraft wheelchair scooter drone" speed="33.33" length="0.10" shape="20396.37,3474.65 20396.37,3474.65"/>
    </edge>
    <edge id=":13165488022_0" function="internal">
        <lane id=":13165488022_0_0" index="0" allow="pedestrian delivery bicycle" speed="5.56" length="16.21" shape="20407.64,3778.05 20404.31,3780.05 20401.33,3782.92 20398.80,3786.28 20396.81,3789.72"/>
    </edge>
    <edge id=":13165488022_1" function="internal">
        <lane id=":13165488022_1_0" index="0" allow="pedestrian delivery bicycle" speed="5.56" length="16.91" shape="20407.64,3778.05 20392.03,3784.54"/>
    </edge>
    <edge id=":13165488022_2" function="internal">
        <lane id=":13165488022_2_0" index="0" allow="pedestrian delivery bicycle" speed="3.65" length="4.67" shape="20407.64,3778.05 20406.23,3777.77 20405.55,3777.18 20405.62,3776.29 20406.42,3775.09"/>
    </edge>
    <edge id=":13165488022_3" function="internal">
        <lane id=":13165488022_3_0" index="0" allow="pedestrian delivery bicycle" speed="5.56" length="16.91" shape="20390.80,3781.58 20406.42,3775.09"/>
    </edge>
    <edge id=":13165488022_4" function="internal">
        <lane id=":13165488022_4_0" index="0" allow="pedestrian delivery bicycle" speed="5.56" length="17.46" shape="20390.80,3781.58 20395.98,3780.07 20398.70,3780.92 20398.98,3784.14 20396.81,3789.72"/>
    </edge>
    <edge id=":13165488022_5" function="internal">
        <lane id=":13165488022_5_0" index="0" allow="pedestrian delivery bicycle" speed="3.65" length="4.67" shape="20390.80,3781.58 20392.22,3781.86 20392.89,3782.45 20392.83,3783.34 20392.03,3784.54"/>
    </edge>
    <edge id=":13165488022_6" function="internal">
        <lane id=":13165488022_6_0" index="0" allow="pedestrian delivery bicycle" speed="4.59" length="6.59" shape="20394.29,3787.61 20395.10,3785.51 20395.00,3784.29 20393.98,3783.97 20392.03,3784.54"/>
    </edge>
    <edge id=":13165488022_7" function="internal">
        <lane id=":13165488022_7_0" index="0" allow="pedestrian delivery bicycle" speed="5.56" length="17.70" shape="20394.29,3787.61 20396.48,3784.04 20399.46,3780.39 20402.89,3777.22 20406.42,3775.09"/>
    </edge>
    <edge id=":13165488022_8" function="internal">
        <lane id=":13165488022_8_0" index="0" allow="pedestrian delivery bicycle" speed="3.68" length="4.80" shape="20394.29,3787.61 20395.71,3787.19 20396.60,3787.41 20396.97,3788.25 20396.81,3789.72"/>
    </edge>
    <edge id=":13165488026_0" function="internal">
        <lane id=":13165488026_0_0" index="0" allow="pedestrian delivery bicycle" speed="5.56" length="7.27" shape="20346.57,3805.43 20346.08,3803.52 20346.30,3801.87 20347.21,3800.48 20348.83,3799.35"/>
    </edge>
    <edge id=":13165488026_1" function="internal">
        <lane id=":13165488026_1_0" index="0" allow="pedestrian delivery bicycle" speed="3.65" length="4.67" shape="20346.57,3805.43 20346.86,3804.02 20347.44,3803.35 20348.34,3803.42 20349.53,3804.23"/>
    </edge>
    <edge id=":13165488026_2" function="internal">
        <lane id=":13165488026_2_0" index="0" allow="pedestrian delivery bicycle" speed="3.91" length="2.42" shape="20350.28,3802.20 20349.75,3802.57 20349.44,3803.04 20349.37,3803.59 20349.53,3804.23"/>
    </edge>
    <edge id=":13165488026_3" function="internal">
        <lane id=":13165488026_3_0" index="0" allow="pedestrian delivery bicycle" speed="3.65" length="4.67" shape="20350.28,3802.20 20348.85,3802.03 20348.13,3801.50 20348.12,3800.61 20348.83,3799.35"/>
    </edge>
    <edge id=":1921826462_0" function="internal">
        <lane id=":1921826462_0_0" index="0" disallow="pedestrian bicycle tram rail_urban rail rail_electric rail_fast ship container cable_car subway aircraft wheelchair scooter drone" speed="17.13" length="20.82" shape="20001.93,3553.93 20006.38,3549.58 20009.47,3546.38 20011.45,3542.67 20012.57,3536.83"/>
        <lane id=":1921826462_0_1" index="1" disallow="pedestrian bicycle tram rail_urban rail rail_electric rail_fast ship container cable_car subway aircraft wheelchair scooter drone" speed="17.34" length="21.34" shape="20001.93,3553.93 20006.90,3549.82 20011.03,3547.25 20014.02,3544.20 20015.60,3538.66"/>
    </edge>
    <edge id=":1921826462_2" function="internal">
        <lane id=":1921826462_2_0" index="0" disallow="pedestrian bicycle tram rail_urban rail rail_electric rail_fast ship container cable_car subway aircraft wheelchair scooter drone" speed="27.78" length="21.00" shape="20001.93,3553.93 20006.52,3549.60 20010.17,3547.21 20014.20,3545.34 20019.96,3542.55"/>
        <lane id=":1921826462_2_1" index="1" disallow="pedestrian bicycle tram rail_urban rail rail_electric rail_fast ship container cable_car subway aircraft wheelchair scooter drone" speed="27.78" length="21.00" shape="20004.25,3556.14 20008.74,3551.93 20012.32,3549.63 20016.27,3547.85 20021.91,3545.14"/>
        <lane id=":1921826462_2_2" index="2" disallow="pedestrian bicycle tram rail_urban rail rail_electric rail_fast ship container cable_car subway aircraft wheelchair scooter drone" speed="27.78" length="21.00" shape="20006.57,3558.35 20010.96,3554.25 20014.47,3552.06 20018.35,3550.35 20023.86,3547.73"/>
    </edge>
    <edge id=":1921826471_0" function="internal">
        <lane id=":1921826471_0_0" index="0" disallow="pedestrian bicycle tram rail_urban rail rail_electric rail_fast ship container cable_car subway aircraft wheelchair scooter drone" speed="30.55" length="18.10" shape="20122.02,3582.01 20118.32,3585.73 20115.72,3588.27 20113.52,3591.07 20110.99,3595.60"/>
        <lane id=":1921826471_0_1" index="1" disallow="pedestrian bicycle tram rail_urban rail rail_electric rail_fast ship container cable_car subway aircraft wheelchair scooter drone" speed="30.55" length="18.10" shape="20119.68,3579.83 20115.80,3583.75 20113.08,3586.44 20110.77,3589.40 20108.13,3594.18"/>
    </edge>
    <edge id=":1921826471_2" function="internal">
        <lane id=":1921826471_2_0" index="0" disallow="pedestrian bicycle tram rail_urban rail rail_electric rail_fast ship container cable_car subway aircraft wheelchair scooter drone" speed="24.04" length="18.23" shape="20114.25,3577.27 20114.26,3582.89 20114.11,3586.80 20113.23,3590.53 20110.99,3595.60"/>
        <lane id=":1921826471_2_1" index="1" disallow="pedestrian bicycle tram rail_urban rail rail_electric rail_fast ship container cable_car subway aircraft wheelchair scooter drone" speed="23.61" length="18.23" shape="20111.07,3576.47 20111.10,3581.90 20111.03,3585.68 20110.25,3589.29 20108.13,3594.18"/>
        <lane id=":1921826471_2_2" index="2" disallow="pedestrian bicycle tram rail_urban rail rail_electric rail_fast ship container cable_car subway aircraft wheelchair scooter drone" speed="23.17" length="18.23" shape="20107.88,3575.68 20107.95,3580.91 20107.95,3584.56 20107.27,3588.04 20105.26,3592.76"/>
    </edge>
    <edge id=":1921826476_0" function="internal">
        <lane id=":1921826476_0_0" index="0" disallow="pedestrian bicycle tram rail_urban rail rail_electric rail_fast ship container cable_car subway aircraft wheelchair scooter drone" speed="30.55" length="27.69" shape="20017.39,3637.71 19989.83,3635.06"/>
        <lane id=":1921826476_0_1" index="1" disallow="pedestrian bicycle tram rail_urban rail rail_electric rail_fast ship container cable_car subway aircraft wheelchair scooter drone" speed="30.55" length="27.89" shape="20017.39,3637.71 19990.13,3631.87"/>
        <lane id=":1921826476_0_2" index="2" disallow="pedestrian bicycle tram rail_urban rail rail_electric rail_fast ship container cable_car subway aircraft wheelchair scooter drone" speed="30.55" length="28.64" shape="20017.39,3637.71 20009.24,3635.58 20003.95,3632.89 19998.63,3630.34 19990.42,3628.68"/>
    </edge>
    <edge id=":1921826476_3" function="internal">
        <lane id=":1921826476_3_0" index="0" disallow="pedestrian bicycle tram rail_urban rail rail_electric rail_fast ship container cable_car subway aircraft wheelchair scooter drone" speed="21.26" length="28.95" shape="20017.39,3637.71 20008.80,3636.17 20003.03,3634.14 19998.02,3630.61 19991.66,3624.59"/>
        <lane id=":1921826476_3_1" index="1" disallow="pedestrian bicycle tram rail_urban rail rail_electric rail_fast ship container cable_car subway aircraft wheelchair scooter drone" speed="20.98" length="28.95" shape="20017.88,3634.55 20009.53,3632.99 20003.98,3630.89 19999.16,3627.34 19993.01,3621.42"/>
        <lane id=":1921826476_3_2" index="2" disallow="pedestrian bicycle tram rail_urban rail rail_electric rail_fast ship container cable_car subway aircraft wheelchair scooter drone" speed="20.70" length="28.95" shape="20018.36,3631.39 20010.27,3629.82 20004.93,3627.65 20000.31,3624.06 19994.35,3618.25"/>
    </edge>
    <edge id=":1921826484_0" function="internal">
        <lane id=":1921826484_0_0" index="0" disallow="pedestrian bicycle tram rail_urban rail rail_electric rail_fast ship container cable_car subway aircraft wheelchair scooter drone" speed="33.33" length="8.20" shape="19767.09,3688.35 19764.89,3689.32 19763.53,3690.34 19762.17,3691.35 19759.96,3692.30"/>
        <lane id=":1921826484_0_1" index="1" disallow="pedestrian bicycle tram rail_urban rail rail_electric rail_fast ship container cable_car subway aircraft wheelchair scooter drone" speed="33.33" length="8.20" shape="19766.11,3685.30 19763.91,3686.28 19762.56,3687.29 19761.20,3688.30 19759.00,3689.25"/>
    </edge>
    <edge id=":224646475_0" function="internal">
        <lane id=":224646475_0_0" index="0" disallow="pedestrian bicycle tram rail_urban rail rail_electric rail_fast ship container cable_car subway aircraft wheelchair scooter drone" speed="27.78" length="1.23" shape="20110.81,3560.18 20111.12,3560.70 20111.30,3561.08 20111.44,3561.47 20111.61,3562.05"/>
        <lane id=":224646475_0_1" index="1" disallow="pedestrian bicycle tram rail_urban rail rail_electric rail_fast ship container cable_car subway aircraft wheelchair scooter drone" speed="27.78" length="1.23" shape="20108.05,3561.79 20108.23,3562.10 20108.34,3562.33 20108.43,3562.56 20108.53,3562.91"/>
        <lane id=":224646475_0_2" index="2" disallow="pedestrian bicycle tram rail_urban rail rail_electric rail_fast ship container cable_car subway aircraft wheelchair scooter drone" speed="27.78" length="1.23" shape="20105.29,3563.40 20105.35,3563.51 20105.38,3563.58 20105.41,3563.66 20105.44,3563.77"/>
    </edge>
    <edge id=":224646486_0" function="internal">
        <lane id=":224646486_0_0" index="0" allow="delivery" speed="11.34" length="7.58" shape="20085.24,3625.70 20083.68,3627.26 20082.88,3628.56 20082.42,3630.09 20081.90,3632.28"/>
    </edge>
    <edge id=":224646486_1" function="internal">
        <lane id=":224646486_1_0" index="0" disallow="pedestrian bicycle tram rail_urban rail rail_electric rail_fast ship container cable_car subway aircraft wheelchair scooter drone" speed="27.78" length="7.45" shape="20085.24,3625.70 20083.47,3627.11 20082.10,3627.87 20080.62,3628.46 20078.50,3629.37"/>
        <lane id=":224646486_1_1" index="1" disallow="pedestrian bicycle tram rail_urban rail rail_electric rail_fast ship container cable_car subway aircraft wheelchair scooter drone" speed="27.78" length="7.45" shape="20083.12,3623.30 20081.40,3624.65 20080.06,3625.35 20078.62,3625.88 20076.57,3626.74"/>
        <lane id=":224646486_1_2" index="2" disallow="pedestrian bicycle tram rail_urban rail rail_electric rail_fast ship container cable_car subway aircraft wheelchair scooter drone" speed="27.78" length="7.45" shape="20081.01,3620.90 20079.34,3622.19 20078.03,3622.82 20076.62,3623.30 20074.65,3624.11"/>
    </edge>
    <edge id=":224646501_0" function="internal">
        <lane id=":224646501_0_0" index="0" allow="delivery" speed="16.67" length="15.29" shape="20054.78,3642.07 20051.75,3640.67 20048.56,3640.23 20044.75,3640.20 20039.83,3640.03"/>
    </edge>
    <edge id=":224646501_1" function="internal">
        <lane id=":224646501_1_0" index="0" disallow="pedestrian bicycle tram rail_urban rail rail_electric rail_fast ship container cable_car subway aircraft wheelchair scooter drone" speed="27.78" length="14.86" shape="20055.26,3637.84 20050.71,3638.86 20047.59,3639.69 20044.44,3640.14 20039.83,3640.03"/>
        <lane id=":224646501_1_1" index="1" disallow="pedestrian bicycle tram rail_urban rail rail_electric rail_fast ship container cable_car subway aircraft wheelchair scooter drone" speed="27.78" length="14.86" shape="20054.68,3634.69 20050.37,3635.67 20047.42,3636.48 20044.44,3636.93 20040.08,3636.84"/>
        <lane id=":224646501_1_2" index="2" disallow="pedestrian bicycle tram rail_urban rail rail_electric rail_fast ship container cable_car subway aircraft wheelchair scooter drone" speed="27.78" length="14.86" shape="20054.10,3631.54 20050.03,3632.48 20047.25,3633.27 20044.44,3633.72 20040.33,3633.65"/>
    </edge>
    <edge id=":224646551_0" function="internal">
        <lane id=":224646551_0_0" index="0" disallow="pedestrian bicycle tram rail_urban rail rail_electric rail_fast ship container cable_car subway aircraft wheelchair scooter drone" speed="30.55" length="26.16" shape="19970.31,3589.18 19976.32,3584.42 19979.88,3580.52 19982.99,3576.14 19987.61,3569.92"/>
        <lane id=":224646551_0_1" index="1" disallow="pedestrian bicycle tram rail_urban rail rail_electric rail_fast ship container cable_car subway aircraft wheelchair scooter drone" speed="30.55" length="26.16" shape="19972.83,3591.31 19978.85,3586.52 19982.40,3582.59 19985.49,3578.17 19990.11,3571.91"/>
        <lane id=":224646551_0_2" index="2" disallow="pedestrian bicycle tram rail_urban rail rail_electric rail_fast ship container cable_car subway aircraft wheelchair scooter drone" speed="30.55" length="26.16" shape="19975.36,3593.43 19981.39,3588.62 19984.92,3584.65 19987.99,3580.19 19992.62,3573.91"/>
    </edge>
    <edge id=":224646551_3" function="internal">
        <lane id=":224646551_3_0" index="0" disallow="pedestrian bicycle tram rail_urban rail rail_electric rail_fast ship container cable_car subway aircraft wheelchair scooter drone" speed="18.01" length="27.03" shape="19979.39,3595.67 19979.08,3587.45 19979.98,3581.71 19982.64,3576.51 19987.61,3569.92"/>
        <lane id=":224646551_3_1" index="1" disallow="pedestrian bicycle tram rail_urban rail rail_electric rail_fast ship container cable_car subway aircraft wheelchair scooter drone" speed="17.66" length="27.03" shape="19982.68,3596.79 19982.31,3588.87 19983.01,3583.30 19985.41,3578.26 19990.11,3571.91"/>
        <lane id=":224646551_3_2" index="2" disallow="pedestrian bicycle tram rail_urban rail rail_electric rail_fast ship container cable_car subway aircraft wheelchair scooter drone" speed="17.30" length="27.03" shape="19985.97,3597.91 19985.54,3590.29 19986.05,3584.90 19988.18,3580.02 19992.62,3573.91"/>
    </edge>
    <edge id=":224646569_0" function="internal">
        <lane id=":224646569_0_0" index="0" disallow="pedestrian bicycle tram rail_urban rail rail_electric rail_fast ship container cable_car subway aircraft wheelchair scooter drone" speed="30.55" length="25.00" shape="20075.44,3534.39 20083.10,3535.68 20088.71,3536.45 20093.89,3536.87 20100.25,3537.05"/>
        <lane id=":224646569_0_1" index="1" disallow="pedestrian bicycle tram rail_urban rail rail_electric rail_fast ship container cable_car subway aircraft wheelchair scooter drone" speed="30.55" length="25.54" shape="20075.44,3534.39 20083.19,3536.19 20088.77,3538.07 20093.88,3539.57 20100.21,3540.25"/>
    </edge>
    <edge id=":224646569_2" function="internal">
        <lane id=":224646569_2_0" index="0" disallow="pedestrian bicycle tram rail_urban rail rail_electric rail_fast ship container cable_car subway aircraft wheelchair scooter drone" speed="27.78" length="25.55" shape="20075.44,3534.39 20082.95,3536.04 20087.86,3538.08 20092.40,3541.03 20098.84,3545.43"/>
        <lane id=":224646569_2_1" index="1" disallow="pedestrian bicycle tram rail_urban rail rail_electric rail_fast ship container cable_car subway aircraft wheelchair scooter drone" speed="20.94" length="25.55" shape="20074.89,3537.54 20082.34,3538.92 20087.38,3540.54 20091.81,3543.37 20097.43,3548.39"/>
        <lane id=":224646569_2_2" index="2" disallow="pedestrian bicycle tram rail_urban rail rail_electric rail_fast ship container cable_car subway aircraft wheelchair scooter drone" speed="20.58" length="25.55" shape="20074.35,3540.70 20081.52,3542.07 20086.34,3543.72 20090.58,3546.54 20095.98,3551.43"/>
    </edge>
    <edge id=":2431587178_0" function="internal">
        <lane id=":2431587178_0_0" index="0" disallow="pedestrian bicycle tram rail_urban rail rail_electric rail_fast ship container cable_car subway aircraft wheelchair scooter drone" speed="33.33" length="8.16" shape="19787.22,3658.72 19789.41,3657.68 19790.76,3656.64 19792.11,3655.62 19794.32,3654.66"/>
        <lane id=":2431587178_0_1" index="1" disallow="pedestrian bicycle tram rail_urban rail rail_electric rail_fast ship container cable_car subway aircraft wheelchair scooter drone" speed="33.33" length="8.16" shape="19788.28,3661.74 19790.44,3660.71 19791.77,3659.68 19793.11,3658.66 19795.29,3657.71"/>
        <lane id=":2431587178_0_2" index="2" disallow="pedestrian bicycle tram rail_urban rail rail_electric rail_fast ship container cable_car subway aircraft wheelchair scooter drone" speed="33.33" length="8.16" shape="19788.28,3661.74 19790.59,3661.19 19792.25,3661.20 19793.93,3661.24 19796.26,3660.76"/>
    </edge>
    <edge id=":2900837115_0" function="internal">
        <lane id=":2900837115_0_0" index="0" allow="pedestrian delivery bicycle" speed="3.65" length="4.67" shape="20543.68,3928.89 20545.09,3929.16 20545.77,3929.74 20545.72,3930.63 20544.92,3931.83"/>
    </edge>
    <edge id=":2900837164_0" function="internal">
        <lane id=":2900837164_0_0" index="0" allow="pedestrian delivery bicycle" speed="3.65" length="4.67" shape="20238.64,4102.25 20240.05,4102.54 20240.72,4103.13 20240.65,4104.02 20239.84,4105.21"/>
    </edge>
    <edge id=":3696451653_0" function="internal">
        <lane id=":3696451653_0_0" index="0" allow="pedestrian delivery bicycle" speed="3.65" length="4.67" shape="19500.20,3968.62 19499.86,3970.02 19499.25,3970.67 19498.36,3970.57 19497.20,3969.72"/>
    </edge>
    <edge id=":3696457885_0" function="internal">
        <lane id=":3696457885_0_0" index="0" allow="pedestrian delivery bicycle" speed="3.65" length="4.67" shape="19626.69,4014.85 19626.38,4016.26 19625.79,4016.93 19624.89,4016.85 19623.71,4016.03"/>
    </edge>
    <edge id=":3696457913_0" function="internal">
        <lane id=":3696457913_0_0" index="0" allow="pedestrian delivery bicycle" speed="3.65" length="4.67" shape="20209.88,4472.61 20209.49,4474.00 20208.86,4474.63 20207.97,4474.50 20206.84,4473.61"/>
    </edge>
    <edge id=":412120824_0" function="internal">
        <lane id=":412120824_0_0" index="0" disallow="pedestrian bicycle tram rail_urban rail rail_electric rail_fast ship container cable_car subway aircraft wheelchair scooter drone" speed="16.10" length="20.62" shape="20032.71,3527.29 20037.37,3530.86 20041.17,3532.46 20045.43,3532.88 20051.44,3532.93"/>
        <lane id=":412120824_0_1" index="1" disallow="pedestrian bicycle tram rail_urban rail rail_electric rail_fast ship container cable_car subway aircraft wheelchair scooter drone" speed="16.36" length="20.62" shape="20031.90,3530.82 20036.70,3534.40 20040.68,3535.88 20045.14,3536.15 20051.39,3536.13"/>
    </edge>
    <edge id=":412120824_2" function="internal">
        <lane id=":412120824_2_0" index="0" disallow="pedestrian bicycle tram rail_urban rail rail_electric rail_fast ship container cable_car subway aircraft wheelchair scooter drone" speed="27.78" length="20.80" shape="20031.00,3538.18 20036.90,3535.83 20040.99,3534.15 20045.19,3533.17 20051.44,3532.93"/>
        <lane id=":412120824_2_1" index="1" disallow="pedestrian bicycle tram rail_urban rail rail_electric rail_fast ship container cable_car subway aircraft wheelchair scooter drone" speed="27.78" length="20.80" shape="20031.51,3541.39 20037.25,3539.08 20041.22,3537.40 20045.31,3536.39 20051.39,3536.13"/>
        <lane id=":412120824_2_2" index="2" disallow="pedestrian bicycle tram rail_urban rail rail_electric rail_fast ship container cable_car subway aircraft wheelchair scooter drone" speed="27.78" length="20.80" shape="20032.02,3544.61 20037.61,3542.33 20041.46,3540.64 20045.42,3539.61 20051.33,3539.33"/>
    </edge>
    <edge id=":472202920_0" function="internal">
        <lane id=":472202920_0_0" index="0" allow="pedestrian delivery bicycle" speed="3.70" length="4.55" shape="20175.50,3896.04 20175.12,3897.39 20174.50,3898.00 20173.64,3897.88 20172.54,3897.01"/>
    </edge>
    <edge id=":472203109_0" function="internal">
        <lane id=":472203109_0_0" index="0" allow="pedestrian delivery bicycle" speed="3.65" length="4.67" shape="20972.63,5195.80 20972.21,5197.18 20971.57,5197.80 20970.68,5197.65 20969.57,5196.74"/>
    </edge>
    <edge id=":472488838_0" function="internal">
        <lane id=":472488838_0_0" index="0" disallow="tram rail_urban rail rail_electric rail_fast ship container cable_car subway aircraft wheelchair scooter drone" speed="5.79" length="12.76" shape="20012.12,3512.83 20013.02,3509.59 20015.49,3507.85 20018.51,3507.92 20021.06,3510.11"/>
        <lane id=":472488838_0_1" index="1" disallow="tram rail_urban rail rail_electric rail_fast ship container cable_car subway aircraft wheelchair scooter drone" speed="4.61" length="7.37" shape="20015.32,3512.64 20015.35,3510.08 20015.86,3509.07 20016.84,3509.62 20018.29,3511.73"/>
    </edge>

    <edge id="-1278996366#0" from="13165488022" to="13165488026" priority="1" type="highway.service" shape="20404.92,3777.44 20395.97,3781.14 20350.38,3800.35 20346.94,3802.11">
        <lane id="-1278996366#0_0" index="0" allow="pedestrian delivery bicycle" speed="5.56" length="45.33" shape="20392.03,3784.54 20351.06,3801.80 20350.28,3802.20"/>
    </edge>
    <edge id="-1278996366#1" from="11868229259" to="13165488022" priority="1" type="highway.service" shape="21031.11,3520.94 20910.25,3572.09 20765.70,3630.01 20712.83,3650.61 20698.59,3656.16 20404.92,3777.44">
        <lane id="-1278996366#1_0" index="0" allow="pedestrian delivery bicycle" speed="5.56" length="674.44" shape="21031.73,3522.41 20910.86,3573.57 20766.29,3631.50 20713.41,3652.10 20699.19,3657.64 20407.64,3778.05"/>
    </edge>
    <edge id="-1432321164#1" from="472203109" to="13165488026" priority="1" type="highway.service" shape="20971.10,5196.27 20969.65,5191.51 20949.02,5153.16 20894.70,5051.58 20890.96,5039.71 20886.57,5024.73 20859.47,4973.66 20857.72,4969.84 20859.80,4966.60 20865.57,4962.56 21023.03,4900.00 21026.20,4897.71 21027.44,4895.68 21026.92,4892.14 20996.56,4820.65 20951.98,4713.44 20948.70,4712.87 20942.40,4714.59 20768.19,4786.14 20766.01,4785.72 20762.88,4782.16 20699.41,4661.20 20691.64,4639.24 20672.78,4601.31 20615.35,4493.98 20589.54,4435.45 20565.23,4377.89 20564.16,4355.99 20554.73,4332.23 20550.35,4320.52 20537.11,4299.89 20525.10,4278.59 20516.31,4247.38 20497.70,4195.70 20443.56,4068.42 20440.26,4053.03 20435.62,4033.82 20388.88,3920.60 20362.89,3851.19 20358.40,3830.21 20346.94,3802.11">
        <lane id="-1432321164#1_0" index="0" allow="pedestrian delivery bicycle" speed="5.56" length="1908.80" shape="20969.57,5196.74 20968.17,5192.13 20947.61,5153.92 20893.22,5052.20 20889.43,5040.18 20885.08,5025.34 20858.03,4974.37 20855.90,4969.71 20858.62,4965.47 20864.81,4961.14 21022.25,4898.59 21025.00,4896.60 21025.77,4895.34 21025.37,4892.58 20995.08,4821.27 20950.84,4714.87 20948.78,4714.51 20942.92,4716.11 20768.36,4787.80 20765.17,4787.19 20761.55,4783.07 20697.94,4661.84 20690.16,4639.87 20671.36,4602.04 20613.91,4494.68 20588.07,4436.08 20563.65,4378.25 20562.57,4356.33 20553.24,4332.81 20548.91,4321.24 20535.74,4300.72 20523.61,4279.21 20514.79,4247.87 20496.21,4196.28 20442.03,4068.91 20438.70,4053.39 20434.09,4034.32 20387.39,3921.19 20361.35,3851.64 20356.87,3830.68 20346.57,3805.43"/>
    </edge>
    <edge id="-286417611" from="2900837115" to="13165488022" priority="1" type="highway.service" shape="20544.30,3930.36 20501.55,3948.46 20449.36,3970.28 20444.71,3970.39 20438.85,3968.30 20434.25,3961.74 20385.41,3838.71 20383.58,3826.45 20383.93,3817.49 20389.80,3800.12 20395.64,3788.48 20404.92,3777.44">
        <lane id="-286417611_0" index="0" allow="pedestrian delivery bicycle" speed="5.56" length="311.09" shape="20544.92,3931.83 20502.17,3949.93 20449.70,3971.87 20444.45,3972.00 20437.83,3969.64 20432.83,3962.50 20383.85,3839.13 20381.98,3826.54 20382.34,3817.20 20388.32,3799.50 20394.29,3787.61"/>
    </edge>
    <edge id="-286417628" from="3696451653" to="2900837164" priority="1" type="highway.service" shape="19498.70,3969.17 19479.13,3915.75 19478.18,3912.09 19477.72,3908.31 19478.48,3904.54 19480.59,3901.03 19483.93,3898.01 19912.86,3753.38 19917.02,3753.89 19921.29,3755.27 19924.33,3757.73 19926.51,3761.03 20003.42,3941.27 20015.20,3955.81 20088.59,4146.92 20092.96,4152.19 20096.36,4155.01 20101.50,4156.75 20108.58,4156.68 20239.24,4103.73">
        <lane id="-286417628_0" index="0" allow="pedestrian delivery bicycle" speed="5.56" length="1132.76" shape="19497.20,3969.72 19477.60,3916.23 19476.60,3912.39 19476.10,3908.25 19476.97,3903.95 19479.34,3900.00 19483.10,3896.60 19912.69,3751.75 19917.37,3752.32 19922.07,3753.84 19925.53,3756.64 19927.92,3760.27 20004.80,3940.44 20016.60,3955.00 20089.99,4146.10 20094.10,4151.05 20097.15,4153.59 20101.76,4155.15 20108.26,4155.08 20238.64,4102.25"/>
    </edge>
    <edge id="-365639901" from="3696457913" to="3696457885" priority="1" type="highway.service" shape="20208.36,4473.11 20200.52,4449.09 20200.22,4435.85 20200.06,4430.84 20187.41,4397.27 20185.04,4392.03 20181.71,4388.02 20178.02,4385.41 20173.86,4383.64 20161.45,4354.42 20092.25,4191.50 20088.98,4187.33 20084.36,4182.54 20082.31,4179.01 20069.31,4145.91 20017.38,4013.77 20007.85,3989.54 20004.58,3985.02 19999.00,3979.13 19997.07,3975.70 19956.62,3879.38 19916.69,3784.25 19912.90,3779.21 19908.49,3776.37 19903.46,3775.33 19897.81,3775.48 19595.40,3877.69 19589.34,3879.85 19584.47,3883.02 19581.42,3887.21 19579.37,3891.41 19578.92,3896.41 19579.70,3901.64 19591.49,3929.19 19598.99,3948.75 19625.20,4015.44">